Version 4
SHEET 1 1108 680
WIRE 240 -64 64 -64
WIRE 592 -64 304 -64
WIRE 64 80 64 -64
WIRE 64 80 -144 80
WIRE 176 80 64 80
WIRE 272 80 176 80
WIRE 592 80 592 -64
WIRE 592 80 528 80
WIRE 736 80 592 80
WIRE 752 80 736 80
WIRE 880 80 752 80
WIRE 976 80 880 80
WIRE -144 112 -144 80
WIRE 880 144 880 80
WIRE 176 160 176 80
WIRE 736 160 736 80
WIRE -144 208 -144 192
WIRE 400 240 400 176
WIRE 592 240 592 160
WIRE 592 240 400 240
WIRE 736 304 736 240
WIRE 736 400 736 368
FLAG 176 224 0
FLAG 880 208 0
FLAG 592 320 0
FLAG -144 208 0
FLAG 752 80 Vout
FLAG 736 400 0
SYMBOL voltage -144 96 R0
WINDOW 123 0 0 Left 0
WINDOW 39 0 0 Left 0
SYMATTR InstName V1
SYMATTR Value PWL(0 0 1 27)
SYMBOL cap 160 160 R0
SYMATTR InstName C1
SYMATTR Value 10µ
SYMBOL res 576 64 R0
SYMATTR InstName R1
SYMATTR Value 100
SYMBOL cap 864 144 R0
SYMATTR InstName C2
SYMATTR Value 10µ
SYMBOL res 576 224 R0
SYMATTR InstName R2
SYMATTR Value 863
SYMBOL PowerProducts\\LT1083 400 80 R0
SYMATTR InstName U1
SYMBOL res 720 144 R0
SYMATTR InstName R3
SYMATTR Value 500
SYMBOL LED 720 304 R0
WINDOW 3 42 74 Left 2
SYMATTR InstName D1
SYMATTR Value W5AP-LZMZ-5K8L
SYMATTR Description Diode
SYMATTR Type diode
SYMBOL schottky 304 -80 R90
WINDOW 0 0 32 VBottom 2
WINDOW 3 32 32 VTop 2
SYMATTR InstName D2
SYMATTR Value 1N5818
SYMATTR Description Diode
SYMATTR Type diode
TEXT 0 344 Left 2 !.tran 1
